case2383wp_sparse_result.txt

====================================================================================
|     NEWTON-RAPHSON POWER FLOW CALCULATION RESULTS                          |
====================================================================================

✓ 潮流计算收敛
  迭代次数: 9
  计算时间: 2.9484 秒

====================================================================================
|     System Summary                                                           |
====================================================================================

How many?               How much?               P (MW)            Q (MVAr)
---------------------  -------------------  -------------  -----------------
Buses          2383     Total Gen Capacity      29593.7         -inf to     inf
Generators     327      Generation (actual)     25284.6            8812.8
Loads          1817     Load                    24558.4            8143.9
Shunts         0        Shunt (inj)                 0.0               0.0
Branches       2896     Losses (I^2 * R)         726.23                  
                        Losses (I^2 * X)              -           5067.28
Transformers   170      Branch Charging (inj)         -            4398.4


                          Minimum                      Maximum
                  -------------------------  --------------------------------
Voltage Magnitude   0.894 p.u. @ bus 1905     1.063 p.u. @ bus 2378 
Voltage Angle      -60.51 deg   @ bus 1858      3.96 deg   @ bus 110  
P Losses (I^2*R)             -                   19.35 MW    @ line 138-67
Q Losses (I^2*X)             -                  217.20 MVAr  @ line 18-15

====================================================================================
|     Bus Data                                                                 |
====================================================================================
 Bus      Voltage          Generation             Load        
  #   Mag(pu) Ang(deg)   P (MW)   Q (MVAr)   P (MW)   Q (MVAr)
----- ------- --------  --------  --------  --------  --------
    1  0.996   -1.420       -          -          -          -    
    2  0.995   -0.921       -          -          -          -    
    3  0.968  -30.572       -          -          -          -    
    4  0.967   -9.692       -          -          -          -    
    5  0.984  -22.043       -          -          -          -    
    6  0.972  -15.950       -          -          -          -    
    7  0.969  -25.144       -          -          -          -    
    8  0.979  -11.922       -          -          -          -    
    9  0.965  -19.313       -          -          -          -    
   10  1.000  -23.658     400.00     94.76     12.23      9.00
   11  0.974   -7.960       -          -          -          -    
   12  0.965  -28.016       -          -          -          -    
   13  0.973  -25.156       -          -          -          -    
   14  0.970   -5.658       -          -          -          -    
   15  0.948  -17.776       -          -          -          -    
   16  1.000   -0.810     720.00    -56.59     54.88    100.00
   17  1.000    0.113    1080.00     44.93     77.00    150.00
   18  1.000    0.000*   2655.96   1025.19    153.00    350.00
   19  0.975  -26.673       -          -          -          -    
   20  0.995   -2.226       -          -          -          -    
   21  0.971  -25.694       -          -          -          -    
   22  0.973  -14.253       -          -          -          -    
   23  0.990  -19.402       -          -          -          -    
   24  0.991  -14.118       -          -          -          -    
   25  0.994  -12.502       -          -          -          -    
   26  0.985  -22.762       -          -          -          -    
   27  0.983  -11.905       -          -          -          -    
   28  0.983  -11.899       -          -          -          -    
   29  1.000  -17.676      70.00   -137.27     25.98     60.00
   30  1.000  -17.677      70.00     69.60     25.98     60.00
   31  1.000  -12.735    1000.00    637.72     20.98     50.00
   32  1.000  -12.776       -          -          -          -    
   33  0.979  -12.831       -          -          -          -    
   34  1.005  -12.065       -          -          -          -    
   35  1.005  -12.074       -          -          -          -    
   36  0.966  -16.272       -          -          -          -    
   37  0.991  -20.590       -          -          -          -    
   38  0.991  -20.589       -          -          -          -    
   39  0.989  -11.281       -          -          -          -    
   40  0.989  -11.269       -          -          -          -    
   41  1.000  -10.140     200.00    -76.40     11.99     30.00
   42  1.000  -10.154      70.00     55.34     11.99     30.00
   43  1.000   -8.512     410.00    215.02     23.98     60.00
   44  1.000   -8.526     410.00    107.37     23.98     60.00
   45  1.000  -18.930      42.20    115.84    159.84     75.00
   46  1.000  -18.928       -          -          -          -    
   47  0.982  -12.722       -          -          -          -    
   48  0.989  -17.698       -          -          -          -    
   49  0.989  -17.703       -          -          -          -    
   50  0.996  -10.120       -          -          -          -    
   51  0.996  -10.140       -          -          -          -    
   52  0.985  -15.291       -          -          -          -    
   53  0.988  -15.167       -          -          -          -    
   54  0.994  -12.423       -          -          -          -    
   55  0.991  -19.459       -          -          -          -    
   56  0.998   -5.712       -          -          -          -    
   57  0.997   -8.592       -          -         22.98     10.96
   58  0.998   -8.592       -          -         21.98      5.79
   59  0.996    1.092       -          -          -          -    
   60  0.997   -4.260       -          -          -          -    
   61  0.999    3.069       -          -          -          -    
   62  0.999    3.071       -          -          -          -    
   63  1.000    1.529     650.00     18.30     37.37     52.69
   64  1.000    1.324     450.00     14.16     35.37     55.32
   65  0.996   -0.832       -          -         13.39      2.02
   66  1.023  -10.110       -          -          -          -    
   67  1.000   -7.776     750.00    752.61     60.40     92.10
   68  1.007   -8.050       -          -          -          -    
   69  0.998   -0.516       -          -          -          -    
   70  1.003   -4.766       -          -          -          -    
   71  0.996   -1.760       -          -          -          -    
   72  0.996   -1.760       -          -          -          -    
   73  1.008   -3.993       -          -          -          -    
   74  1.006   -5.026       -          -          -          -    
   75  0.985   -1.915       -          -          -          -    
   76  0.985   -1.922       -          -          -          -    
   77  0.995   -2.294       -          -          -          -    
   78  0.994   -5.620       -          -          -          -    
   79  0.996   -1.064       -          -          -          -    
   80  0.998   -8.532       -          -          -          -    
   81  0.998   -8.531       -          -          -          -    
   82  0.995    1.726       -          -          -          -    
   83  1.000   -0.500     225.00     34.48     15.99     22.97
   84  1.000   -0.501     225.00      4.13     15.79     22.27
   85  1.000   -2.323     120.00     48.84      9.99     17.01
   86  1.000   -2.321     120.00     52.54      9.99     16.66
   87  0.994   -3.357       -          -         11.09     16.22
   88  0.994   -3.357       -          -          -          -    
   89  0.993   -1.019       -          -          -          -    
   90  0.999   -1.826       -          -          -          -    
   91  0.995   -0.371       -          -          -          -    
   92  0.986   -6.331       -          -          -          -    
   93  1.000    0.133     120.00     58.00      9.99     16.39
   94  1.000    0.131       -          -          -          -    
   95  1.000   -0.034     110.00     25.73      6.89      8.15
   96  1.000   -0.040       -          -          -          -    
   97  1.000   -5.568      87.60     30.09      8.69      5.26
   98  0.987   -9.016       -          -          -          -    
   99  0.987   -9.005       -          -          -          -    
  100  0.986   -5.949       -          -          -          -    
  101  0.986   -5.939       -          -          -          -    
  102  0.995   -0.903       -          -          -          -    
  103  1.000   -1.941     160.00   -153.69     18.09     23.76
  104  1.000   -1.934     225.00     48.15     33.68     46.11
  105  1.000   -5.638     430.00    334.10     33.78     62.95
  106  1.000   -5.653       -          -          -          -    
  107  1.001   -5.097       -          -          -          -    
  108  1.003   -4.900       -          -          -          -    
  109  1.000    3.962     250.00      6.58      1.00     22.36
  110  1.000    3.964     250.00      6.78      1.00     22.18
  111  1.000  -16.510     360.00    165.37     26.49     18.00
  112  1.000  -16.503       -          -          -          -    
  113  0.959  -31.328       -          -          -          -    
  114  0.971  -30.654       -          -          -          -    
  115  0.935  -23.841       -          -          -          -    
  116  0.935  -23.830       -          -          -          -    
  117  0.977  -35.514       -          -          -          -    
  118  0.966  -45.992       -          -          -          -    
  119  0.966  -45.992       -          -          -          -    
  120  0.952  -44.034       -          -          -          -    
  121  0.968  -31.276       -          -          -          -    
  122  0.968  -31.276       -          -          -          -    
  123  1.000  -22.526      20.00     39.10      5.50      7.00
  124  1.000  -22.519     125.00     35.08      8.79     17.00
  125  1.000  -42.023      70.00    135.79     35.70     18.30
  126  1.000  -42.008       -          -         25.28     15.90
  127  1.000  -33.204     690.00    351.74     25.71     15.30
  128  1.000  -33.213       -          -          -          -    
  129  0.962  -38.770       -          -          -          -    
  130  0.939  -40.113       -          -          -          -    
  131  1.000  -27.981     645.38    -73.93     68.67     70.00
  132  1.000  -28.000      70.00   -104.56     33.00     45.00
  133  0.986  -23.420       -          -          -          -    
  134  0.986  -23.419       -          -          -          -    
  135  0.965  -45.873       -          -          -          -    
  136  0.965  -45.873       -          -          -          -    
  137  0.941  -19.467       -          -          -          -    
  138  0.941  -19.467       -          -          -          -    
  139  1.000  -22.871     408.67     69.14     33.20     22.60
  140  1.000  -22.880     200.00     79.52     29.23     19.60
  141  0.977  -42.049       -          -          -          -    
  142  0.964  -46.243       -          -          -          -    
  143  0.984  -37.387       -          -          -          -    
  144  0.984  -37.386       -          -          -          -    
  145  0.912  -36.999       -          -          -          -    
  146  0.912  -36.999       -          -          -          -    
  147  0.954  -36.145       -          -          -          -    
  148  0.954  -36.139       -          -          -          -    
  149  0.980  -38.205       -          -          -          -    
  150  0.963  -30.336       -          -          -          -    
  151  0.963  -30.345       -          -          -          -    
  152  0.961  -26.144       -          -          -          -    
  153  0.961  -26.144       -          -          -          -    
  154  0.938  -38.309       -          -          -          -    
  155  0.970  -32.751       -          -          -          -    
  156  1.044  -35.765       -          -          -          -    
  157  0.976  -33.621       -          -          -          -    
  158  0.976  -33.613       -          -          -          -    
  159  0.983  -30.008       -          -          -          -    
  160  0.983  -30.017       -          -          -          -    
  161  0.977  -36.683       -          -          -          -    
  162  0.977  -36.685       -          -          -          -    
  163  1.010  -33.526       -          -          -          -    
  164  1.010  -33.528       -          -          -          -    
  165  0.940  -26.765       -          -          -          -    
  166  0.979  -31.848       -          -          -          -    
  167  0.979  -31.846       -          -          -          -    
  168  0.977  -31.933       -          -          -          -    
  169  0.977  -31.941       -          -          -          -    
  170  0.971  -32.936       -          -          -          -    
  171  0.971  -32.932       -          -          -          -    
  172  0.984  -34.319       -          -          -          -    
  173  0.984  -34.317       -          -          -          -    
  174  0.970  -31.709       -          -          -          -    
  175  0.970  -31.718       -          -          -          -    
  176  1.000  -28.809     600.00    267.28      -          -    
  177  1.000  -28.806     200.00    116.83      -          -    
  178  0.998  -38.113       -          -          -          -    
  179  0.998  -38.107       -          -          -          -    
  180  1.000   -8.554       0.00     74.74    339.85     49.60
  181  1.000  -10.926     175.00    -12.43      -          -    
  182  1.000  -23.188     307.59    776.98      -          -    
  183  1.011  -13.072       -          -        150.00      0.00
  184  1.000   -5.433       0.00    114.77    317.34     50.30
  185  1.000   -9.356       0.00     62.92    362.43     36.70
  186  1.000  -42.169       0.00     -0.38     33.33      1.00
  187  0.969  -30.025       -          -          7.12      1.50
  188  0.935  -38.047       -          -          7.63      1.00
  189  0.923  -34.641       -          -          9.77      8.70
  190  1.001   -6.463       -          -          6.12      1.50
  191  0.998   -7.968       -          -          6.12      1.60
  192  1.000  -25.184      95.00    -20.31     30.56     12.00
  193  1.003  -25.106       -          -         15.28      3.00
  194  1.001  -25.434       -          -          -          -    
  195  0.997  -31.542       -          -          8.14      2.00
  196  1.000  -39.985       0.90      4.41      6.92      1.50
  197  0.977  -18.176       -          -          6.92      1.50
  198  1.000  -31.800       0.80      9.55     12.32      1.70
  199  1.006   -9.599       -          -          1.43      0.50
...
                           Total:  25284.61   8812.81  24558.38   8143.92

====================================================================================
|     Branch Data                                                              |
====================================================================================
 Brnch   From   To    From Bus Injection   To Bus Injection     Loss (I^2 * Z)  
   #     Bus    Bus    P (MW)   Q (MVAr)   P (MW)   Q (MVAr)   P (MW)   Q (MVAr)
----- -----  -----  --------  --------  --------  --------  --------  --------
    1     16      1     93.32     17.78    -93.18    -18.54     0.140      1.06
    2    355      1    -93.96    -12.65     93.18     18.54     0.143      6.01
    3     17      2    157.06     26.03   -156.66    -24.87     0.394      2.97
    4    354      2   -159.70     -8.23    156.66     24.87     0.399     16.82
    5     10      3    151.50     22.32   -148.96    -15.44     2.538     18.76
    6    219      3    -55.89    -16.48     54.48     18.42     0.058      2.38
    7    220      3    -93.90      9.36     94.48     -2.99     0.157      6.42
    8      7      4   -243.57     72.27    255.26    -18.01    11.684     67.78
    9     11      4    180.50     12.02   -179.49     -8.84     1.011      5.52
   10     14      4    202.86    -15.51   -200.92     25.01     1.943     14.17
   11     16      4    228.88     31.78   -224.11     -4.60     4.768     35.79
   12     22      4   -164.86     48.03    167.32    -39.21     2.457     13.50
   13    245      4   -124.42    -24.57    117.71     34.28     0.265     11.09
   14    246      4    -67.04     -8.59     64.24     11.36     0.075      3.14
   15      5      6   -366.33    -67.61    289.90     99.43     0.917     43.68
   16      7      5   -131.54    -18.75    132.52     20.29     0.981      7.45
   17     10      5    -22.49      8.93     22.61    -24.32     0.117      0.90
   18    309      5   -104.04    -34.74     97.92     40.59     0.191      7.95
   19    309      5   -103.64    -18.14     98.67     24.56     0.176      7.32
   20      6      8   -501.66     -3.09    504.65      6.04     2.985     35.42
   21      6      9    150.63    -32.45   -149.91    -44.84     0.722      8.87
   22     15      6    -90.98    -99.66     91.36     17.87     0.385      4.41
   23     31      6    377.63    137.57   -375.12   -151.56     2.512     25.22
   24    310      6   -298.04    -10.16    282.16     64.43     1.330     54.85
   25     12      7    -53.04     -2.41     53.41     -8.05     0.368      2.66
   26     13      7      2.58     24.55     -2.56    -26.57     0.014      0.09
   27     19      7    -58.82     19.34     59.05    -23.33     0.237      1.69
   28     21      7   -132.55     41.62    132.75    -41.33     0.191      1.34
   29     29      7    171.90     16.32   -168.08     -6.40     3.816     22.55
   30    321      7   -166.79      0.18    161.68      9.23     0.114      9.40
   31    322      7   -146.37    -29.27    138.86     42.93     0.371     15.23
   32      8     18   -504.65     -6.04    513.65     12.59     9.001    106.54
   33    332      9   -161.37    -31.43    149.91     44.84     0.228     13.74
   34    171     10   -149.56     -1.84    152.91     11.04     3.345     24.72
   35    346     10     -9.07     -7.66      9.02      7.72     0.002      0.10
   36    347     10    -99.03    -29.15     96.84     35.76     0.132      7.29
   37     16     11    312.53     35.41   -306.87     -3.56     5.655     39.21
   38     17     11    351.81     35.00   -344.67      7.15     7.141     49.51
   39    111     11   -217.16     91.67    223.19    -65.95     6.029     34.98
   40    352     11   -151.76     -3.97    146.13     19.62     0.378     15.81
   41    353     11   -107.20    -23.77    101.72     30.72     0.196      8.21
   42    140     12     85.03     16.26    -83.88    -24.46     1.149      8.31
   43    359     12    -96.41      0.69     92.89      5.49     0.144      6.15
   44    360     12    -46.59    -20.84     44.03     21.38     0.040      1.70
   45     29     13    158.95     10.28   -155.51     -3.27     3.439     20.74
   46    365     13    -71.03     -0.99     68.96      4.44     0.083      3.48
   47    366     13    -82.76     30.95     83.97    -25.72     0.134      5.62
   48     17     14    352.03     74.10   -347.05    -41.53     4.983     37.02
   49    367     14    -94.88    -15.33     89.12     20.42     0.140      6.04
   50    368     14    -59.27    -36.01     55.07     36.63     0.077      3.21
   51     18     15    693.34    115.29   -675.09     -1.99    18.244    217.20
   52     15    165    565.08     -1.96   -557.71     30.92     7.373     88.12
   53    374     15   -230.20    -78.67    200.99    103.61     0.853     35.21
   54     16     18    -59.31   -225.23     56.12    226.04     0.195     13.66
   55     16     73     86.32    -29.18    -85.59     22.94     0.728      5.00
   56     17     18      4.58   -227.24     -4.13    227.25     0.186     13.01
   57     17     74    137.78    -25.97   -136.09     28.66     1.686     12.44
   58     20     18   -517.17    -34.88    518.87     16.12     1.704     20.26
   59     75     18   -143.19    -74.23    143.70     21.02     0.509      5.50
   60     18     76    209.74     54.92   -209.06    -87.44     0.681      8.07
   61     18    101    371.67      1.96   -368.45    -32.53     3.223     38.63
   62    124     19     59.07      4.52    -58.45    -19.16     0.627      4.57
   63    425     19   -119.85     10.29    117.26     -0.18     0.239      9.87
   64     67     20   -275.54     12.47    278.16    -70.85     2.615     27.06
   65    447     20   -152.63    -29.65    141.68     42.40     0.302     13.48
   66    448     20   -106.12    -58.57     97.34     63.34     0.185      8.28
   67    502     21   -131.19     55.73    132.55    -41.62     0.338     14.56
   68    112     22   -123.32    125.70    124.78   -120.36     1.460      8.22
   69    526     22    -52.13    -52.26     48.88     52.68     0.090      3.76
   70    527     22      9.18    -20.14     -8.80     19.65     0.008      0.34
   71     37     23    -27.97      0.61     28.06    -10.40     0.097      0.58
   72     46     23     19.73     13.21    -19.67    -20.16     0.056      0.33
   73     53     23    107.02    -22.91   -105.66     21.21     1.355      7.92
   74    540     23    -98.91     -2.89     97.28      9.35     0.136      6.51
   75     54     24     50.67     -5.93    -50.47     -1.24     0.200      1.49
   76    545     24    -51.24      0.51     50.47      1.24     0.039      1.74
   77     41     25     99.38      1.15    -98.83     -3.37     0.550      4.10
   78     53     25   -134.93      1.29    135.77     -0.07     0.844      6.29
   79     54     25     98.27      8.19    -98.25     -8.26     0.019      0.14
   80    564     25    -62.94     -8.86     61.31     11.70     0.062      3.08
   81     38     26     71.51     -1.90    -71.14     -3.17     0.364      2.71
   82    568     26    -71.99      0.29     71.14      3.17     0.078      3.46
   83     28     27     94.99    -24.40    -94.99     24.41     0.000      0.01
   84     33     27   -105.84    -11.79    106.12     11.39     0.283      1.76
   85     48     27   -148.91     41.82    151.93    -35.48     3.016     15.45
   86     27     74   -163.06     -0.32    166.13      9.96     3.071     19.90
   87     47     28    -76.81      0.68     76.96     -2.24     0.152      1.10
   88     28     88   -171.95     26.63    176.66    -12.02     4.710     25.83
   89     30     29    -13.99      0.00     13.99      0.00     0.000      0.00
   90     29     32   -411.19   -251.90    388.02    285.98     0.791     48.76
   91     45     29    -53.37      4.48     53.53    -10.01     0.159      1.17
   92     48     29     -4.16    -27.62      4.19     21.39     0.036      0.27
   93    613     29    -28.71     -1.41     28.68      1.97     0.013      0.56
   94     46     30    -53.26      4.42     53.42     -9.95     0.158      1.17
   95     49     30     -4.55    -26.16      4.59     19.55     0.039      0.25
   96     32     31   -713.47   -416.73    713.47    417.41     0.000      0.68
   97     39     31    112.37    -85.96   -112.08     32.74     0.287      3.50
   98     36     32   -323.27   -158.35    325.45    130.75     2.187     24.75
   99    615     33   -108.72     -3.68    105.84     11.79     0.193      8.22
  100     35     34   -156.79      3.52    156.79     -3.50     0.000      0.02
  101     34     51   -232.25     67.39    232.94    -96.38     0.687      8.54
  102    183     34    -75.34      0.04     75.47    -63.89     0.124      1.51
  103    183     35    -74.66     -0.04     74.78    -63.83     0.122      1.49
  104    617     35    -87.22    -57.63     82.01     60.30     0.138      6.21
  105    644     36   -178.52    -66.70    162.73     82.17     0.481     21.55
  106    645     36   -175.56    -60.73    160.54     76.18     0.518     20.83
  107     38     37     19.64    -10.19    -19.64     10.20     0.000      0.00
  108    663     37    -47.61     12.42     47.61    -10.80     0.038      1.61
  109     55     38     91.42    -13.39    -91.15     12.10     0.273      1.80
  110     40     39    192.43    -43.37   -192.43     43.41     0.000      0.04
  111    682     39    -84.77    -39.78     80.06     42.55     0.117      5.03
  112     44     40    375.98     45.20   -374.40    -60.46     1.583     18.55
  113    679     40   -199.40    -83.41    181.96    103.83     0.628     27.97
  114     42     41   -245.97      0.03    245.97      0.03     0.000      0.06
  115     41     43    -97.82   -117.12     94.46    119.85     0.189      6.99
  116     80     41     63.23    -13.57    -63.07      5.28     0.152      1.79
  117     47     42    -69.25    -21.53     69.72     15.10     0.464      3.46
  118     54     42   -148.94     -2.26    149.73      4.17     0.797      5.94
  119    689     42    -84.74     -1.14     84.53      6.05     0.104      4.91
  120     44     43   -243.88      0.03    243.88      0.03     0.000      0.06
  121     99     43    -47.58    -83.94     47.68     35.14     0.100      1.18
  122     50     44   -253.31    -24.30    253.92      2.15     0.609      7.10
  123     46     45     33.53    -17.63    -33.53     17.63     0.000      0.00
  124     49     45     30.89    -26.92    -30.73     18.73     0.156      0.91
  125    706     47    -74.68    -10.14     72.95     13.77     0.090      3.88
  126    707     47    -74.48     -3.36     73.11      7.09     0.092      3.79
  127     49     48    -89.36     33.03     89.36    -33.02     0.000      0.01
  128    717     48    -65.10    -16.13     63.71     18.83     0.074      3.06
  129    716     49    -64.46    -17.40     63.03     20.05     0.064      3.05
  130     51     50   -354.77     36.93    354.77    -36.80     0.000      0.13
  131     98     50    101.06    -79.62   -100.85     37.74     0.208      2.48
  132    100     50    126.93    -91.64   -126.13    -36.92     0.803      9.49
  133    726     50   -135.47    -52.35    125.53     60.29     0.272     11.88
  134    727     51   -131.52    -51.83    121.83     59.45     0.259     11.55
  135     53     52     27.91     21.61    -27.89    -22.78     0.020      0.11
  136    754     52    -28.75    -22.57     27.89     22.78     0.022      0.90
  137    181     55    175.00    -12.43   -170.60     25.55     4.397     25.61
  138    778     55    -78.91     16.55     79.18    -12.17     0.105      4.42
  139     74     56    101.04     43.91   -100.79    -44.42     0.250      1.55
  140    796     56   -104.45    -37.28    100.79     44.42     0.252      8.25
  141     81     57     22.99     10.27    -22.98    -10.96     0.005      0.03
  142     80     58     21.98      5.09    -21.98     -5.79     0.004      0.03
  143     63     59     57.18     20.74    -57.11    -22.46     0.078      0.53
  144     82     59     15.04     -9.03    -15.01     -2.30     0.027      0.17
  145    821     59    -73.30    -20.84     72.12     24.77     0.097      3.98
  146     60     85    -55.81      1.20     56.16     -7.73     0.347      1.88
  147    104     60     98.31     -7.44    -97.73      4.22     0.580      3.96
  148    834     60    -82.38     18.73     83.02    -13.39     0.103      4.93
  149    836     60    -71.41     -1.38     70.52      7.97     0.189      6.38
  150     62     61     34.47    -23.23    -34.47     23.24     0.000      0.00
  151     64     61    -77.28     11.26     77.60    -14.76     0.319      2.37
  152    109     61    249.00    -15.78   -248.48     18.68     0.517      3.86
  153    184     61   -200.15     45.61    205.36    -27.16     5.206     30.18
  154     82     62   -213.25     -1.84    214.01      4.92     0.758      5.03
  155    110     62    249.00    -15.40   -248.48     18.31     0.516      3.86
  156     71     63   -182.55     16.54    184.17    -10.93     1.614     10.47
  157     91     63   -118.39      2.62    119.04     -3.29     0.645      3.92
  158     94     63   -189.15     28.95    189.83    -26.57     0.682      4.62
  159     96     63    -62.08      9.93     62.41    -14.34     0.332      1.70
  160     64     69    106.69     -9.19   -106.20      7.34     0.496      3.40
  161     79     64   -168.51     10.05    169.52     -7.02     1.010      7.01
  162     93     64   -161.19     24.39    161.68    -23.27     0.495      3.36
  163     95     64    -53.77      8.09     54.02    -12.93     0.249      1.28
  164     90     65    -39.24     10.11     39.37    -15.75     0.135      0.71
  165     65     91    -52.76     13.73     52.83    -15.86     0.069      0.44
  166     66     67   -201.52   -169.46    190.03    173.49     0.205     13.86
  167     66     68   -148.03     85.48    148.73    -83.72     0.702      6.67
  168    152     66   -325.94      7.67    337.85     74.15    11.916     95.57
  169    138     67   -935.62   -109.72    954.97    266.11    19.345    205.02
  170    911     67    118.09    -96.12   -110.46    105.72     0.363     14.59
  171    912     67     74.23    -98.30    -69.40    102.71     0.238      9.57
  172     68     78    -95.73     43.42     96.38    -45.40     0.648      4.65
  173    978     68     24.30    -22.26    -24.09     23.12     0.018      0.73
  174    979     68     29.10    -16.22    -28.91     17.18     0.016      0.74
  175     83     69      5.82     20.09     -5.81    -21.80     0.007      0.05
  176    995     69   -101.39     -7.12    100.47     14.06     0.150      6.77
  177    996     69    -11.57     -0.06     11.54      0.40     0.002      0.09
  178     70     73   -145.38    -33.83    145.70     34.33     0.320      2.14
  179    107     70   -145.24    -33.61    145.38     33.83     0.137      0.92
  180     72     71      0.00     -0.00      0.00     -0.00     0.000      0.00
  181     86     71    -89.79     61.31     89.99    -61.57     0.197      1.16
  182   1059     71    -53.63    -25.20     52.66     27.43     0.051      2.48
  183   1060     71    -38.11    -15.32     39.90     17.60     0.032      1.30
  184     73     75    -33.97   -117.08    257.69    117.61     0.110      3.59
  185     87     73     31.36    -57.96    -31.20     54.64     0.163      1.18
  186     74     76   -107.16   -143.92    321.57    152.61     0.240      7.89
  187     74    108    -34.11     56.05     34.14    -56.71     0.036      0.22
  188     76     75   -114.18     42.11    114.18    -42.10     0.000      0.02
  189     76    105    226.02   -101.95   -224.63     41.95     1.389     15.69
  190     84     77    117.25      0.63   -116.71     -1.56     0.541      3.67
  191     85     77      1.16     34.14     -1.14    -36.24     0.023      0.17
  192   1095     77    -84.16    -25.54     82.95     30.69     0.130      5.28
  193   1096     77    -35.17     -5.65     34.90      7.11     0.019      0.86
  194     78    103   -186.95     14.01    188.72     -7.94     1.768     12.00
  195   1106     78    -92.90    -25.41     90.57     31.39     0.135      6.35
  196     88     79   -167.62     13.17    168.51    -10.05     0.889      6.70
  197     81     80      7.35      3.88     -7.35     -3.88     0.000      0.00
  198     80     96   -161.06     33.89    165.46    -21.36     4.394     24.19
  199   1114     80    -82.05     26.40     83.21    -21.53     0.122      4.97
...
                                                        Total:   726.226   5067.28

====================================================================================
